9
 RS2/VDZ  ENERGY=-154.44295858
 C         -0.0301316622       -0.6611451190       -0.6609396445
 O          0.0624905137        0.4445452899       -1.4600285117
 H         -1.0162488624       -0.9834270351       -0.3044839901
 H          0.7224108012       -1.4197246231       -0.8865629521
 H         -0.6745242104        1.0267478764       -1.2327650280
 C          0.0219611557        0.1458649143        2.2280084590
 H         -1.0616639121        0.0882882254        2.3401043605
 H          0.6292215433       -0.7505282034        2.3616518755
 H          0.5062327706        1.1224906435        2.2238282984