33
.\tests\xyzFileSamples\Si_OC2H5_4_B3LYP.log	Energy: -569574.1577883
Si        -0.25770        0.33400       -0.28500
O         -1.33129        1.25789        0.54744
O          0.68971       -0.41545        0.82851
O         -0.93242       -0.84593       -1.20783
O          0.54332        1.33943       -1.30804
C         -2.08203        0.86806        1.70390
C         -1.64205       -0.67041       -2.44013
C          1.60701       -1.48995        0.58987
C          1.08661        2.62743       -0.99365
H         -1.40337        0.44190        2.45006
H         -2.80337        0.09135        1.42297
H         -1.04137       -0.05771       -3.12037
C         -1.92473       -2.03261       -3.04784
H          0.31711        3.23697       -0.50861
H          1.91628        2.50821       -0.28657
H          1.09665       -2.28675        0.03887
C          2.12782       -2.00209        1.92075
C         -2.80184        2.08328        2.26057
H         -2.57972       -0.13610       -2.24567
H          2.43506       -1.12855       -0.03163
C          1.57091        3.28684       -2.27248
H         -0.99196       -2.56261       -3.25508
H         -2.47490       -1.92054       -3.98698
H         -2.52333       -2.64252       -2.36692
H          2.83798       -2.81874        1.75956
H          1.30664       -2.37513        2.53753
H          2.63580       -1.20511        2.46915
H         -3.38908        1.80429        3.14065
H         -3.47764        2.50740        1.51399
H         -2.08517        2.85423        2.55373
H          0.74395        3.41907       -2.97431
H          2.33791        2.67638       -2.75521
H          1.99828        4.26975       -2.05234
